# systemd unit for the web UI. Prefer ./install-service.sh, which fills in the
# bracketed tokens below from your environment (user, install dir, bind host/port,
# venv) and refuses to install if any token is left unresolved.
#
# To install by hand instead: replace each token and copy to
# /etc/systemd/system/odysseus-ui.service.
[Unit]
Description=Telemachus UI
After=network.target

[Service]
Type=simple
User=__SERVICE_USER__
WorkingDirectory=__INSTALL_DIR__
# Bind to loopback by default (front with a reverse proxy or `tailscale serve`);
# never 0.0.0.0 on a privileged box.
ExecStart=__INSTALL_DIR__/__VENV__/bin/uvicorn app:app --host __BIND_HOST__ --port __APP_PORT__
Restart=always
RestartSec=3
EnvironmentFile=-__INSTALL_DIR__/.env

# --- Sandboxing (additive hardening; safe defaults for a loopback web app) ---
# These reduce blast radius if the process is compromised. Conservative on
# purpose: the app writes under its own install dir (data/, logs/), so we keep
# that path writable and only lock down everything else. If you enable optional
# features that need broader FS access (e.g. Cookbook building llama.cpp), relax
# the relevant directive rather than dropping the whole block.
NoNewPrivileges=true
PrivateTmp=true
ProtectSystem=full
ProtectHome=read-only
ReadWritePaths=__INSTALL_DIR__
ProtectKernelTunables=true
ProtectKernelModules=true
ProtectControlGroups=true
RestrictSUIDSGID=true
RestrictRealtime=true
LockPersonality=true

# Opt-in secret injection from a manager (sigil / Vaultwarden). Set SECRET_BACKEND
# and TELEMACHUS_SECRET_* in the .env above, then render into a tmpfs file and
# SOURCE it at launch — systemd reads EnvironmentFile before ExecStartPre runs, so
# sourcing in ExecStart is the pattern that actually works. Uncomment to enable:
#RuntimeDirectory=telemachus
#ExecStartPre=__INSTALL_DIR__/scripts/render-secrets.sh --envfile %t/telemachus/secrets.env
#ExecStart=
#ExecStart=/bin/sh -c 'set -a; . %t/telemachus/secrets.env; exec __INSTALL_DIR__/__VENV__/bin/uvicorn app:app --host __BIND_HOST__ --port __APP_PORT__'

[Install]
WantedBy=multi-user.target
